6264
YES


* . * . * . * . * . * . * . * . * . * . * . * . * . * . * . * . * . * . * . * . 
     PROGRAM GLOBAL_CHGRES HAS BEGUN. COMPILED 1999253.50     ORG: NP23
     STARTING DATE-TIME  AUG 28,2008  16:15:58.666  241  THU   2454707


 &NAMCHG
 JCAP=62, LEVS=64, NTRAC=3, LONB=192, LATB=94, LONBI=0, LATBI=0, IDVC=3, IDVM=32, IDSL=2, IGEN=0, MGG=0, MQUICK=0, IDVT=21, NCLDT=1, LATCH=8, LSOIL=0, IVSSFC=200509, IVSSIG=200509, NVCOORD=3, OUTTYP=1, IDRT=4, RI=286.0499878, 461.5000000, 173.2247009, 0.0000000000E+00, 0.0000000000E+00, 0.0000000000E+00, 0.0000000000E+00, 0.0000000000E+00, 0.0000000000E+00, 0.0000000000E+00, 0.0000000000E+00, 0.0000000000E+00, 0.0000000000E+00, 0.0000000000E+00, 0.0000000000E+00, 0.0000000000E+00, 0.0000000000E+00, 0.0000000000E+00, 0.0000000000E+00, 0.0000000000E+00, 0.0000000000E+00, CPI=1004.599976, 1846.000000, 820.2390747, 0.0000000000E+00, 0.0000000000E+00, 0.0000000000E+00, 0.0000000000E+00, 0.0000000000E+00, 0.0000000000E+00, 0.0000000000E+00, 0.0000000000E+00, 0.0000000000E+00, 0.0000000000E+00, 0.0000000000E+00, 0.0000000000E+00, 0.0000000000E+00, 0.0000000000E+00, 0.0000000000E+00, 0.0000000000E+00, 0.0000000000E+00, 0.0000000000E+00, IALB=0, CHGQ0=0
 /
 CHGRES INPUT:  SPECTRAL SIGIO SIGMA FILE 
 CHGRES OUTPUT: GFSIO GRID FILE
  cpi= 1004.599976 1846.000000 820.2390747 0.0000000000E+00  ri= 286.0499878 461.5000000 173.2247009 0.0000000000E+00
CHANGE SIGMA FILE RESOLUTION FROM  382 WAVES,   64 LEVELS, AND    3 TRACERS
                                   IVS=198410 IDVC= 2 NVCOORD= 2  IDVM= 0
                               TO   62 WAVES,   64 LEVELS, AND    3 TRACERS.
                                   IVS=200509 IDVC= 3 NVCOORD= 3  IDVM=32
  USING A GAUSSIAN TRANSFORM GRID OF  192 X   94
  NEW OROGRAPHY READ IN
  NEW MODEL LEVELS READ IN
 omega time= 8009.864258
  JREC= 578  NREC= 578
  iret= 0  nslm= 22
CHANGE SURFACE FILE RESOLUTION FROM 1152 X  576 X    4   VERSION  200509
                                 TO  192 X   94 X    4   VERSION  200509
  NEW LAND-SEA MASK READ IN
  NEW LONSPERLAT READ IN
 - CALL SETUP ROUTINE
 - READ CONFIGURATION NAMELIST.
 - RESOLUTION OF INPUT GRID IN DEGREES IS:  0.3125000000
 - RESOLUTION OF OUTPUT GRID IN DEGREES IS:  1.875000000
 - CALCULATE SOIL PARAMETERS
 - CALL CYCLE TO GET SURFACE STATIC/CLIMO FIELDS ON OUTPUT GRIDS.
 FTSFL,FALBL,FAISL,FSNOL,FSMCL,FZORL,FSTCL= 99999.00000 0.0000000000E+00 0.0000000000E+00 0.0000000000E+00 99999.00000 99999.00000 99999.00000 99999.00000 0.0000000000E+00 0.0000000000E+00 0.0000000000E+00 0.0000000000E+00 0.0000000000E+00 0.0000000000E+00 0.0000000000E+00 0.0000000000E+00 0.0000000000E+00 0.0000000000E+00 0.0000000000E+00 0.0000000000E+00 0.0000000000E+00 0.0000000000E+00 0.0000000000E+00 0.0000000000E+00 0.0000000000E+00 0.0000000000E+00 0.0000000000E+00 0.0000000000E+00 0.0000000000E+00 0.0000000000E+00 99999.00000 99999.00000 99999.00000 99999.00000 0.0000000000E+00 0.0000000000E+00 0.0000000000E+00 0.0000000000E+00 0.0000000000E+00 0.0000000000E+00 0.0000000000E+00 0.0000000000E+00 0.0000000000E+00 0.0000000000E+00 0.0000000000E+00 0.0000000000E+00 0.0000000000E+00 0.0000000000E+00 0.0000000000E+00 0.0000000000E+00 0.0000000000E+00 0.0000000000E+00 0.0000000000E+00 0.0000000000E+00 0.0000000000E+00
 FTSFS,FALBS,FAISS,FSNOS,FSMCS,FZORS,FSTCS= 0.0000000000E+00 0.0000000000E+00 0.0000000000E+00 99999.00000 0.0000000000E+00 0.0000000000E+00 0.0000000000E+00 0.0000000000E+00 0.0000000000E+00 0.0000000000E+00 0.0000000000E+00 0.0000000000E+00 0.0000000000E+00 0.0000000000E+00 0.0000000000E+00 0.0000000000E+00 0.0000000000E+00 0.0000000000E+00 0.0000000000E+00 0.0000000000E+00 0.0000000000E+00 0.0000000000E+00 0.0000000000E+00 0.0000000000E+00 0.0000000000E+00 0.0000000000E+00 0.0000000000E+00 0.0000000000E+00 0.0000000000E+00 99999.00000 0.0000000000E+00 0.0000000000E+00 0.0000000000E+00 0.0000000000E+00 0.0000000000E+00 0.0000000000E+00 0.0000000000E+00 0.0000000000E+00 0.0000000000E+00 0.0000000000E+00 0.0000000000E+00 0.0000000000E+00 0.0000000000E+00 0.0000000000E+00 0.0000000000E+00 0.0000000000E+00 0.0000000000E+00 0.0000000000E+00 0.0000000000E+00 0.0000000000E+00 0.0000000000E+00 0.0000000000E+00 0.0000000000E+00 0.0000000000E+00 0.0000000000E+00
  AISLIM= 0.5000000000  SIHNEW= 0.2000000030
  FILE /nwprod/fix/seaice_newland.grb opened. Unit= 51
  First grib record.
  KPDS( 1-10)= 7 120 235 128 81 1 0 1 1 1
  KPDS(11-20)= 0 0 4 0 1 51 1 1 1 0
  KPDS(21-  )= 21 0
 IDIM,JDIM= 720 360  gaus= F  blno= 0.2500000000  blto= 89.75000000
  
  LUGB= 51  LEN= 13072  LSOIL= 4
 IY= 2007  IM= 7  ID= 2  IH= 0  FH= 0.0000000000E+00  SIG1T(1)= 0.0000000000E+00  gausm= F  blnmsk= 0.2500000000  bltmsk= 89.75000000
  
  IN FIXRDC for MON= -1  FNGRIB=/nwprod/fix/global_glacier.2x2.grb
  FILE /nwprod/fix/global_glacier.2x2.grb opened. Unit= 51
  First grib record.
  KPDS( 1-10)= 7 80 255 128 238 1 0 0 1 1
  KPDS(11-20)= 0 0 4 0 1 51 1 1 2 0
  KPDS(21-  )= 20 1
  Input grib file dates= 0 1 1 0
 IMAX,JMAX,IJMAX= 180 91 16380
  MAXMIN of input as is
  LEVEL= 1 MAX= .1000E+01 AT I=16380 MIN= .0000E+00 AT I=15222
  KGDS( 1-12)= 0 180 91 90000 0 128 -90000 -2000 2000 2000 0 0
  KGDS(13-22)= 0 0 0 0 0 0 0 255 0 0
 LAT/LON GRID
 IMAX,JMAX,IJMAX,DLON,DLAT,IJORDR,WLON,RNLAT=
 180 91 16380 2.000000000 -2.000000000 T 0.0000000000E+00 90.00000763
  LEVEL= 1 MAX= .1000E+01 AT I=13072 MIN= .0000E+00 AT I=12812
  IN FIXRDC for MON= -1  FNGRIB=/nwprod/fix/global_maxice.2x2.grb
  FILE /nwprod/fix/global_maxice.2x2.grb opened. Unit= 51
  First grib record.
  KPDS( 1-10)= 7 80 255 128 91 1 0 0 1 1
  KPDS(11-20)= 0 0 4 0 1 51 1 1 2 0
  KPDS(21-  )= 20 1
  Input grib file dates= 0 1 1 0
 IMAX,JMAX,IJMAX= 180 91 16380
  MAXMIN of input as is
  LEVEL= 1 MAX= .1000E+01 AT I=15764 MIN= .0000E+00 AT I=16380
  KGDS( 1-12)= 0 180 91 90000 0 128 -90000 -2000 2000 2000 0 0
  KGDS(13-22)= 0 0 0 0 0 0 0 255 0 0
 LAT/LON GRID
 IMAX,JMAX,IJMAX,DLON,DLAT,IJORDR,WLON,RNLAT=
 180 91 16380 2.000000000 -2.000000000 T 0.0000000000E+00 90.00000763
  LEVEL= 1 MAX= .1000E+01 AT I=12965 MIN= .0000E+00 AT I=13072
 QC of maximum ice extent
  Max ice limit less than glacier coverage at  519  POINTS  3.970318317 percent
 ==============
 CLIMATOLOGY
 ==============
  Forecast JY,JM,JD,JH,rjday= 2007 7 2 0 1.000000000
 Forecast JY,JM,JD,JH= 2007 7 2 0
 RJDAY,MON1,MON2,WEI1M,WEI2M= 183.0000000 6 7 0.4426229596 0.5573770404
 RJDAY,SEA1,SEA2,WEI1S,WEI2S= 183.0000000 4 7 0.1475409865 0.8524590135
 bosu first time thru
  IN FIXRDC for MON= -1  FNGRIB=/nwprod/fix/global_albedo4.1x1.grb
  FILE /nwprod/fix/global_albedo4.1x1.grb opened. Unit= 51
  First grib record.
  KPDS( 1-10)= 7 0 255 128 214 1 0 0 0 0
  KPDS(11-20)= 0 0 4 0 1 51 0 1 131 0
  KPDS(21-  )= 20 1
  Input grib file dates= 0 0 0 0
 IMAX,JMAX,IJMAX= 360 180 64800
  MAXMIN of input as is
  LEVEL= 1 MAX= .1000E+03 AT I=50328 MIN= .0000E+00 AT I=64800
  KGDS( 1-12)= 0 360 180 89500 500 128 -89500 -500 1000 1000 0 0
  KGDS(13-22)= -1 -1 -1 -1 -1 -1 0 255 -1 -1
 LAT/LON GRID
 IMAX,JMAX,IJMAX,DLON,DLAT,IJORDR,WLON,RNLAT=
 360 180 64800 1.000000000 -1.000000000 T 0.5000000000 89.50000763
  LEVEL= 1 MAX= .1000E+03 AT I= 2634 MIN= .0000E+00 AT I=13072
  IN FIXRDC for MON= -1  FNGRIB=/nwprod/fix/global_tg3clim.2.6x1.5.grb
  FILE /nwprod/fix/global_tg3clim.2.6x1.5.grb opened. Unit= 51
  First grib record.
  KPDS( 1-10)= 7 80 255 128 11 111 500 0 1 1
  KPDS(11-20)= 0 0 4 0 1 51 1 1 2 0
  KPDS(21-  )= 20 1
  Input grib file dates= 0 1 1 0
 IMAX,JMAX,IJMAX= 138 116 16008
  MAXMIN of input as is
  LEVEL= 1 MAX= .3024E+03 AT I= 6625 MIN= .2155E+03 AT I=15213
  KGDS( 1-12)= 0 138 116 90000 0 128 -88125 -1875 2609 1539 0 0
  KGDS(13-22)= -1 -1 -1 -1 -1 -1 0 255 -1 -1
 LAT/LON GRID
 IMAX,JMAX,IJMAX,DLON,DLAT,IJORDR,WLON,RNLAT=
 138 116 16008 2.609000206 -1.539000034 T 0.0000000000E+00 90.00000763
 I1,I2,J1,J2= 133 134 6 7
 RSLMSK= 0.0000000000E+00 0.0000000000E+00 0.0000000000E+00 0.0000000000E+00
 I= 177  SLMASK(I)= 1.000000000  outlon= -15.00000000  outlat= 80.94734955
 I1,I2,J1,J2= 109 110 9 10
 RSLMSK= 0.0000000000E+00 0.0000000000E+00 0.0000000000E+00 0.0000000000E+00
 I= 282  SLMASK(I)= 1.000000000  outlon= -78.00000000  outlat= 77.13935852
  Unable to interpolate.  Filled with nearest point value at  21  points  imxnx= -73008
  LEVEL= 1 MAX= .3024E+03 AT I= 4809 MIN= .2155E+03 AT I=12906
  IN FIXRDC for MON= -1  FNGRIB=/nwprod/fix/global_vegtype.1x1.grb
  FILE /nwprod/fix/global_vegtype.1x1.grb opened. Unit= 51
  First grib record.
  KPDS( 1-10)= 7 80 255 128 225 1 0 0 1 1
  KPDS(11-20)= 0 0 4 0 1 51 1 1 2 0
  KPDS(21-  )= 20 1
  Input grib file dates= 0 1 1 0
 IMAX,JMAX,IJMAX= 360 180 64800
  MAXMIN of input as is
  LEVEL= 1 MAX= .1300E+02 AT I=61716 MIN= .0000E+00 AT I=64800
  KGDS( 1-12)= 0 360 180 -89500 -179500 128 89500 179500 1000 1000 64 0
  KGDS(13-22)= -1 -1 -1 -1 -1 -1 0 255 -1 -1
 LAT/LON GRID
 IMAX,JMAX,IJMAX,DLON,DLAT,IJORDR,WLON,RNLAT=
 360 180 64800 1.000000000 1.000000000 T -179.5000153 89.50000763
  Nearest grid point used kpds5= 225  lmask =  T
  LEVEL= 1 MAX= .1300E+02 AT I=13072 MIN= .0000E+00 AT I=12833
  LEVEL= 1 MAX= .1300E+02 AT I=13072 MIN= .0000E+00 AT I=12833
 Climatological vegetation type read in.
  IN FIXRDC for MON= -1  FNGRIB=/nwprod/fix/global_soiltype.1x1.grb
  FILE /nwprod/fix/global_soiltype.1x1.grb opened. Unit= 51
  First grib record.
  KPDS( 1-10)= 7 80 255 128 230 1 0 0 1 1
  KPDS(11-20)= 0 0 4 0 1 51 1 1 2 0
  KPDS(21-  )= 20 1
  Input grib file dates= 0 1 1 0
 IMAX,JMAX,IJMAX= 360 180 64800
  MAXMIN of input as is
  LEVEL= 1 MAX= .9000E+01 AT I=62432 MIN= .0000E+00 AT I=64800
  KGDS( 1-12)= 0 360 180 -89500 -179500 128 89500 179500 1000 1000 64 0
  KGDS(13-22)= -1 -1 -1 -1 -1 -1 0 255 -1 -1
 LAT/LON GRID
 IMAX,JMAX,IJMAX,DLON,DLAT,IJORDR,WLON,RNLAT=
 360 180 64800 1.000000000 1.000000000 T -179.5000153 89.50000763
  Nearest grid point used kpds5= 230  lmask =  T
  LEVEL= 1 MAX= .9000E+01 AT I=13072 MIN= .0000E+00 AT I=12833
  LEVEL= 1 MAX= .9000E+01 AT I=13072 MIN= .0000E+00 AT I=12833
 Climatological soil type read in.
  IN FIXRDC for MON= -1  FNGRIB=/nwprod/fix/global_shdmin.0.144x0.144.grb
  FILE /nwprod/fix/global_shdmin.0.144x0.144.grb opened. Unit= 51
  First grib record.
  KPDS( 1-10)= 7 0 255 128 255 1 0 100 1 1
  KPDS(11-20)= 0 0 3 0 24 0 0 1 2 0
  KPDS(21-  )= 19 2
  Input grib file dates= 100 1 1 0
 IMAX,JMAX,IJMAX= 2500 1250 3125000
  MAXMIN of input as is
  LEVEL= 1 MAX= .8900E+02 AT I=***** MIN= .0000E+00 AT I=*****
  KGDS( 1-12)= 0 2500 1250 -89928 -180000 128 89927 179855 144 144 64 0
  KGDS(13-22)= -1 -1 -1 -1 -1 -1 0 255 -1 -1
 LAT/LON GRID
 IMAX,JMAX,IJMAX,DLON,DLAT,IJORDR,WLON,RNLAT=
 2500 1250 3125000 0.1440000087 0.1440000087 T -180.0000153 89.92800140
 I1,I2,J1,J2= 688 689 50 51
 RSLMSK= 1.000000000 1.000000000 1.000000000 1.000000000
 I= 122  SLMASK(I)= 0.0000000000E+00  outlon= -81.00000000  outlat= 82.85076141
 I1,I2,J1,J2= 938 939 50 51
 RSLMSK= 1.000000000 1.000000000 1.000000000 1.000000000
 I= 126  SLMASK(I)= 0.0000000000E+00  outlon= -45.00000000  outlat= 82.85076141
  Unable to interpolate.  Filled with nearest point value at  156  points  imxnx= -73008
  LEVEL= 1 MAX= .8363E+02 AT I= 6311 MIN= .0000E+00 AT I=12833
 Climatological shdmin read in.
  IN FIXRDC for MON= -1  FNGRIB=/nwprod/fix/global_shdmax.0.144x0.144.grb
  FILE /nwprod/fix/global_shdmax.0.144x0.144.grb opened. Unit= 51
  First grib record.
  KPDS( 1-10)= 7 0 255 128 255 1 0 100 1 1
  KPDS(11-20)= 0 0 3 0 24 0 0 1 2 0
  KPDS(21-  )= 19 2
  Input grib file dates= 100 1 1 0
 IMAX,JMAX,IJMAX= 2500 1250 3125000
  MAXMIN of input as is
  LEVEL= 1 MAX= .9900E+02 AT I=***** MIN= .0000E+00 AT I=*****
  KGDS( 1-12)= 0 2500 1250 -89928 -180000 128 89927 179855 144 144 64 0
  KGDS(13-22)= -1 -1 -1 -1 -1 -1 0 255 -1 -1
 LAT/LON GRID
 IMAX,JMAX,IJMAX,DLON,DLAT,IJORDR,WLON,RNLAT=
 2500 1250 3125000 0.1440000087 0.1440000087 T -180.0000153 89.92800140
 I1,I2,J1,J2= 688 689 50 51
 RSLMSK= 1.000000000 1.000000000 1.000000000 1.000000000
 I= 122  SLMASK(I)= 0.0000000000E+00  outlon= -81.00000000  outlat= 82.85076141
 I1,I2,J1,J2= 938 939 50 51
 RSLMSK= 1.000000000 1.000000000 1.000000000 1.000000000
 I= 126  SLMASK(I)= 0.0000000000E+00  outlon= -45.00000000  outlat= 82.85076141
  Unable to interpolate.  Filled with nearest point value at  156  points  imxnx= -73008
  LEVEL= 1 MAX= .9900E+02 AT I= 2732 MIN= .0000E+00 AT I=12833
 Climatological shdmax read in.
  IN FIXRDC for MON= -1  FNGRIB=/nwprod/fix/global_slope.1x1.grb
  FILE /nwprod/fix/global_slope.1x1.grb opened. Unit= 51
  First grib record.
  KPDS( 1-10)= 7 0 255 128 236 1 0 100 1 1
  KPDS(11-20)= 0 0 3 0 24 0 0 1 2 0
  KPDS(21-  )= 19 2
  Input grib file dates= 100 1 1 0
 IMAX,JMAX,IJMAX= 360 180 64800
  MAXMIN of input as is
  LEVEL= 1 MAX= .1300E+02 AT I=62432 MIN= .0000E+00 AT I=64800
  KGDS( 1-12)= 0 360 180 -89500 -179500 128 89500 179500 1000 1000 64 0
  KGDS(13-22)= -1 -1 -1 -1 -1 -1 0 255 -1 -1
 LAT/LON GRID
 IMAX,JMAX,IJMAX,DLON,DLAT,IJORDR,WLON,RNLAT=
 360 180 64800 1.000000000 1.000000000 T -179.5000153 89.50000763
  Nearest grid point used kpds5= 236  lmask =  T
  LEVEL= 1 MAX= .1300E+02 AT I=13072 MIN= .0000E+00 AT I=12833
  LEVEL= 1 MAX= .1300E+02 AT I=13072 MIN= .0000E+00 AT I=12833
 Climatological slope read in.
  IN FIXRDC for MON= -1  FNGRIB=/nwprod/fix/global_snoalb.1x1.grb
  FILE /nwprod/fix/global_snoalb.1x1.grb opened. Unit= 51
  First grib record.
  KPDS( 1-10)= 7 0 255 128 255 1 0 100 1 1
  KPDS(11-20)= 0 0 3 0 24 0 0 1 2 0
  KPDS(21-  )= 19 2
  Input grib file dates= 100 1 1 0
 IMAX,JMAX,IJMAX= 360 180 64800
  MAXMIN of input as is
  LEVEL= 1 MAX= .8000E+02 AT I=60765 MIN= .0000E+00 AT I=64800
  KGDS( 1-12)= 0 360 180 -89500 -180000 128 89500 179000 1000 1000 64 0
  KGDS(13-22)= -1 -1 -1 -1 -1 -1 0 255 -1 -1
 LAT/LON GRID
 IMAX,JMAX,IJMAX,DLON,DLAT,IJORDR,WLON,RNLAT=
 360 180 64800 1.000000000 1.000000000 T -180.0000153 89.50000763
 I1,I2,J1,J2= 200 201 11 12
 RSLMSK= 0.0000000000E+00 0.0000000000E+00 0.0000000000E+00 0.0000000000E+00
 I= 182  SLMASK(I)= 1.000000000  outlon= 19.28571320  outlat= 79.04348755
 I1,I2,J1,J2= 103 104 13 14
 RSLMSK= 0.0000000000E+00 0.0000000000E+00 0.0000000000E+00 0.0000000000E+00
 I= 282  SLMASK(I)= 1.000000000  outlon= -78.00000000  outlat= 77.13935852
  Unable to interpolate.  Filled with nearest point value at  47  points  imxnx= -73008
  LEVEL= 1 MAX= .8000E+02 AT I=  588 MIN= .0000E+00 AT I=12833
 Climatological snoalb read in.
  IN FIXRDC for MON= 3  FNGRIB=/nwprod/fix/global_albedo4.1x1.grb
  FILE /nwprod/fix/global_albedo4.1x1.grb opened. Unit= 51
  First grib record.
  KPDS( 1-10)= 7 0 255 128 212 1 0 0 12 0
  KPDS(11-20)= 0 0 4 0 3 51 0 1 131 0
  KPDS(21-  )= 20 1
  Input grib file dates= 0 3 0 0
 IMAX,JMAX,IJMAX= 360 180 64800
  MAXMIN of input as is
  LEVEL= 1 MAX= .3600E+02 AT I=40700 MIN= .0000E+00 AT I=64800
  KGDS( 1-12)= 0 360 180 89500 500 128 -89500 -500 1000 1000 0 0
  KGDS(13-22)= -1 -1 -1 -1 -1 -1 0 255 -1 -1
 LAT/LON GRID
 IMAX,JMAX,IJMAX,DLON,DLAT,IJORDR,WLON,RNLAT=
 360 180 64800 1.000000000 -1.000000000 T 0.5000000000 89.50000763
  LEVEL= 1 MAX= .3600E+02 AT I= 4824 MIN= .0000E+00 AT I=13072
  IN FIXRDC for MON= 3  FNGRIB=/nwprod/fix/global_albedo4.1x1.grb
  FILE /nwprod/fix/global_albedo4.1x1.grb opened. Unit= 51
  First grib record.
  KPDS( 1-10)= 7 0 255 128 215 1 0 0 12 0
  KPDS(11-20)= 0 0 4 0 3 51 0 1 131 0
  KPDS(21-  )= 20 1
  Input grib file dates= 0 3 0 0
 IMAX,JMAX,IJMAX= 360 180 64800
  MAXMIN of input as is
  LEVEL= 1 MAX= .9000E+02 AT I=64800 MIN= .0000E+00 AT I=60448
  KGDS( 1-12)= 0 360 180 89500 500 128 -89500 -500 1000 1000 0 0
  KGDS(13-22)= -1 -1 -1 -1 -1 -1 0 255 -1 -1
 LAT/LON GRID
 IMAX,JMAX,IJMAX,DLON,DLAT,IJORDR,WLON,RNLAT=
 360 180 64800 1.000000000 -1.000000000 T 0.5000000000 89.50000763
  LEVEL= 1 MAX= .9000E+02 AT I=12840 MIN= .0000E+00 AT I=12833
  IN FIXRDC for MON= 3  FNGRIB=/nwprod/fix/global_albedo4.1x1.grb
  FILE /nwprod/fix/global_albedo4.1x1.grb opened. Unit= 51
  First grib record.
  KPDS( 1-10)= 7 0 255 128 213 1 0 0 12 0
  KPDS(11-20)= 0 0 4 0 3 51 0 1 131 0
  KPDS(21-  )= 20 1
  Input grib file dates= 0 3 0 0
 IMAX,JMAX,IJMAX= 360 180 64800
  MAXMIN of input as is
  LEVEL= 1 MAX= .5100E+02 AT I=40700 MIN= .0000E+00 AT I=64800
  KGDS( 1-12)= 0 360 180 89500 500 128 -89500 -500 1000 1000 0 0
  KGDS(13-22)= -1 -1 -1 -1 -1 -1 0 255 -1 -1
 LAT/LON GRID
 IMAX,JMAX,IJMAX,DLON,DLAT,IJORDR,WLON,RNLAT=
 360 180 64800 1.000000000 -1.000000000 T 0.5000000000 89.50000763
  LEVEL= 1 MAX= .5100E+02 AT I= 4823 MIN= .0000E+00 AT I=13072
  IN FIXRDC for MON= 3  FNGRIB=/nwprod/fix/global_albedo4.1x1.grb
  FILE /nwprod/fix/global_albedo4.1x1.grb opened. Unit= 51
  First grib record.
  KPDS( 1-10)= 7 0 255 128 216 1 0 0 12 0
  KPDS(11-20)= 0 0 4 0 3 51 0 1 131 0
  KPDS(21-  )= 20 1
  Input grib file dates= 0 3 0 0
 IMAX,JMAX,IJMAX= 360 180 64800
  MAXMIN of input as is
  LEVEL= 1 MAX= .6500E+02 AT I=64800 MIN= .0000E+00 AT I=60448
  KGDS( 1-12)= 0 360 180 89500 500 128 -89500 -500 1000 1000 0 0
  KGDS(13-22)= -1 -1 -1 -1 -1 -1 0 255 -1 -1
 LAT/LON GRID
 IMAX,JMAX,IJMAX,DLON,DLAT,IJORDR,WLON,RNLAT=
 360 180 64800 1.000000000 -1.000000000 T 0.5000000000 89.50000763
  LEVEL= 1 MAX= .6500E+02 AT I=13072 MIN= .0000E+00 AT I=12833
  IN FIXRDC for MON= 6  FNGRIB=/nwprod/fix/cfs_oi2sst1x1monclim19822001.grb
  FILE /nwprod/fix/cfs_oi2sst1x1monclim19822001.grb opened. Unit= 51
  First grib record.
  KPDS( 1-10)= 7 44 255 128 11 1 0 82 1 1
  KPDS(11-20)= 0 0 3 0 1 51 20 1 3 0
  KPDS(21-  )= 20 2
  Input grib file dates= 82 6 1 0
 IMAX,JMAX,IJMAX= 360 180 64800
  MAXMIN of input as is
  LEVEL= 1 MAX= .3050E+03 AT I=23457 MIN= .2714E+03 AT I=64800
  KGDS( 1-12)= 0 360 180 89500 500 128 -89500 -500 1000 1000 0 0
  KGDS(13-22)= -1 -1 -1 -1 -1 -1 0 255 -1 -1
 LAT/LON GRID
 IMAX,JMAX,IJMAX,DLON,DLAT,IJORDR,WLON,RNLAT=
 360 180 64800 1.000000000 -1.000000000 T 0.5000000000 89.50000763
 I1,I2,J1,J2= 265 266 17 18
 RSLMSK= 1.000000000 1.000000000 1.000000000 1.000000000
 I= 420  SLMASK(I)= 0.0000000000E+00  outlon= -95.00000000  outlat= 73.33065796
 I1,I2,J1,J2= 306 307 19 20
 RSLMSK= 1.000000000 1.000000000 1.000000000 1.000000000
 I= 507  SLMASK(I)= 0.0000000000E+00  outlon= -54.00000000  outlat= 71.42617798
  Unable to interpolate.  Filled with nearest point value at  21  points  imxnx= -73008
  LEVEL= 1 MAX= .3047E+03 AT I= 3880 MIN= .2713E+03 AT I=13072
  IN FIXRDC for MON= 6  FNGRIB=/nwprod/fix/global_soilmcpc.1x1.grb
  FILE /nwprod/fix/global_soilmcpc.1x1.grb opened. Unit= 51
  First grib record.
  KPDS( 1-10)= 7 80 255 128 144 112 130 79 1 1
  KPDS(11-20)= 0 0 3 1 0 51 15 1 2 0
  KPDS(21-  )= 20 3
  Input grib file dates= 79 6 1 0
 IMAX,JMAX,IJMAX= 360 181 65160
  MAXMIN of input as is
  LEVEL= 1 MAX= .4700E+00 AT I=65160 MIN= .1040E+00 AT I=25225
  KGDS( 1-12)= 0 360 181 90000 0 128 -90000 -1 1000 1000 0 0
  KGDS(13-22)= -1 -1 -1 -1 -1 -1 0 255 -1 -1
 LAT/LON GRID
 IMAX,JMAX,IJMAX,DLON,DLAT,IJORDR,WLON,RNLAT=
 360 181 65160 1.000000000 -1.000000000 T 0.0000000000E+00 90.00000763
 I1,I2,J1,J2= 103 104 13 14
 RSLMSK= 1.000000000 1.000000000 0.0000000000E+00 1.000000000
 I= 252  SLMASK(I)= 0.0000000000E+00  outlon= 102.0000000  outlat= 77.13935852
 I1,I2,J1,J2= 266 267 15 16
 RSLMSK= 1.000000000 1.000000000 0.0000000000E+00 1.000000000
 I= 348  SLMASK(I)= 0.0000000000E+00  outlon= -95.00000000  outlat= 75.23506165
  Unable to interpolate.  Filled with nearest point value at  33  points  imxnx= -73008
  LEVEL= 1 MAX= .4700E+00 AT I= 6535 MIN= .1040E+00 AT I= 4241
  IN FIXRDC for MON= 6  FNGRIB=/nwprod/fix/cfs_ice1x1monclim19822001.grb
  FILE /nwprod/fix/cfs_ice1x1monclim19822001.grb opened. Unit= 51
  First grib record.
  KPDS( 1-10)= 7 44 255 192 91 1 0 82 1 1
  KPDS(11-20)= 0 0 3 0 1 51 20 1 3 0
  KPDS(21-  )= 20 2
  Input grib file dates= 82 6 1 0
 IMAX,JMAX,IJMAX= 360 180 64800
  MAXMIN of input as is
  LEVEL= 1 MAX= .1000E+01 AT I=57184 MIN= .0000E+00 AT I=64800
  KGDS( 1-12)= 0 360 180 89500 500 128 -89500 -500 1000 1000 0 0
  KGDS(13-22)= -1 -1 -1 -1 -1 -1 0 255 -1 -1
 LAT/LON GRID
 IMAX,JMAX,IJMAX,DLON,DLAT,IJORDR,WLON,RNLAT=
 360 180 64800 1.000000000 -1.000000000 T 0.5000000000 89.50000763
  LEVEL= 1 MAX= .9906E+00 AT I=12451 MIN= .0000E+00 AT I=13072
  IN FIXRDC for MON= 6  FNGRIB=/nwprod/fix/global_snoclim.1.875.grb
  FILE /nwprod/fix/global_snoclim.1.875.grb opened. Unit= 51
  First grib record.
  KPDS( 1-10)= 7 80 255 128 65 1 0 0 1 1
  KPDS(11-20)= 0 0 3 0 1 51 1 1 2 0
  KPDS(21-  )= 20 1
  Input grib file dates= 0 6 1 0
 IMAX,JMAX,IJMAX= 192 95 18240
  MAXMIN of input as is
  LEVEL= 1 MAX= .5000E+05 AT I=18240 MIN= .0000E+00 AT I=17776
  KGDS( 1-12)= 0 192 95 88125 0 128 -88125 -1875 1875 1875 0 0
  KGDS(13-22)= -1 -1 -1 -1 -1 -1 0 255 -1 -1
 LAT/LON GRID
 IMAX,JMAX,IJMAX,DLON,DLAT,IJORDR,WLON,RNLAT=
 192 95 18240 1.875000119 -1.875000119 T 0.0000000000E+00 88.12500763
 I1,I2,J1,J2= 185 186 4 5
 RSLMSK= 0.0000000000E+00 0.0000000000E+00 0.0000000000E+00 0.0000000000E+00
 I= 177  SLMASK(I)= 1.000000000  outlon= -15.00000000  outlat= 80.94734955
 I1,I2,J1,J2= 55 56 6 7
 RSLMSK= 1.000000000 1.000000000 1.000000000 1.000000000
 I= 252  SLMASK(I)= 0.0000000000E+00  outlon= 102.0000000  outlat= 77.13935852
  Unable to interpolate.  Filled with nearest point value at  27  points  imxnx= -73008
  LEVEL= 1 MAX= .5000E+05 AT I=12893 MIN= .0000E+00 AT I=12965
  IN FIXRDC for MON= 6  FNGRIB=/nwprod/fix/global_zorclim.1x1.grb
  FILE /nwprod/fix/global_zorclim.1x1.grb opened. Unit= 51
  First grib record.
  KPDS( 1-10)= 7 80 255 128 83 1 0 0 1 1
  KPDS(11-20)= 0 0 3 0 1 51 1 1 2 0
  KPDS(21-  )= 20 1
  Input grib file dates= 0 6 1 0
 IMAX,JMAX,IJMAX= 360 180 64800
  MAXMIN of input as is
  LEVEL= 1 MAX= .1000E+02 AT I=64800 MIN= .0000E+00 AT I=61716
  KGDS( 1-12)= 0 360 180 -89500 -179500 128 89500 179500 1000 1000 64 0
  KGDS(13-22)= -1 -1 -1 -1 -1 -1 0 255 -1 -1
 LAT/LON GRID
 IMAX,JMAX,IJMAX,DLON,DLAT,IJORDR,WLON,RNLAT=
 360 180 64800 1.000000000 1.000000000 T -179.5000153 89.50000763
 I1,I2,J1,J2= 90 91 9 10
 RSLMSK= 0.0000000000E+00 0.0000000000E+00 0.0000000000E+00 0.0000000000E+00
 I= 167  SLMASK(I)= 1.000000000  outlon= -90.00000000  outlat= 80.94734955
 I1,I2,J1,J2= 161 162 11 12
 RSLMSK= 1.000000000 1.000000000 1.000000000 1.000000000
 I= 232  SLMASK(I)= 0.0000000000E+00  outlon= -19.28573608  outlat= 79.04348755
  Unable to interpolate.  Filled with nearest point value at  44  points  imxnx= -73008
  LEVEL= 1 MAX= .1000E+02 AT I= 4848 MIN= .0000E+00 AT I=13072
  IN FIXRDC for MON= 6  FNGRIB=/nwprod/fix/global_vegfrac.0.144.decpercent.grb
  FILE /nwprod/fix/global_vegfrac.0.144.decpercent.grb opened. Unit= 51
  First grib record.
  KPDS( 1-10)= 7 80 255 192 87 1 0 100 1 1
  KPDS(11-20)= 0 0 3 0 1 51 5 1 3 0
  KPDS(21-  )= 19 2
  Input grib file dates= 100 6 1 0
 IMAX,JMAX,IJMAX= 2500 1250 3125000
  MAXMIN of input as is
  LEVEL= 1 MAX= .9900E+00 AT I=***** MIN= .0000E+00 AT I=*****
  KGDS( 1-12)= 0 2500 1250 -89928 -180000 128 89928 179856 144 144 64 0
  KGDS(13-22)= -1 -1 -1 -1 -1 -1 0 255 -1 -1
 LAT/LON GRID
 IMAX,JMAX,IJMAX,DLON,DLAT,IJORDR,WLON,RNLAT=
 2500 1250 3125000 0.1440000087 0.1440000087 T -180.0000153 89.92800140
 I1,I2,J1,J2= 688 689 50 51
 RSLMSK= 1.000000000 1.000000000 1.000000000 1.000000000
 I= 122  SLMASK(I)= 0.0000000000E+00  outlon= -81.00000000  outlat= 82.85076141
 I1,I2,J1,J2= 938 939 50 51
 RSLMSK= 1.000000000 1.000000000 1.000000000 1.000000000
 I= 126  SLMASK(I)= 0.0000000000E+00  outlon= -45.00000000  outlat= 82.85076141
  Unable to interpolate.  Filled with nearest point value at  156  points  imxnx= -73008
  LEVEL= 1 MAX= .9900E+00 AT I= 2732 MIN= .0000E+00 AT I=12833
 Climatological vegetation cover read in for mon= 6
  IN FIXRDC for MON= 6  FNGRIB=/nwprod/fix/global_albedo4.1x1.grb
  FILE /nwprod/fix/global_albedo4.1x1.grb opened. Unit= 51
  First grib record.
  KPDS( 1-10)= 7 0 255 128 212 1 0 0 12 0
  KPDS(11-20)= 0 0 4 0 3 51 0 1 131 0
  KPDS(21-  )= 20 1
  Input grib file dates= 0 6 0 0
 IMAX,JMAX,IJMAX= 360 180 64800
  MAXMIN of input as is
  LEVEL= 1 MAX= .3600E+02 AT I=40700 MIN= .0000E+00 AT I=64800
  KGDS( 1-12)= 0 360 180 89500 500 128 -89500 -500 1000 1000 0 0
  KGDS(13-22)= -1 -1 -1 -1 -1 -1 0 255 -1 -1
 LAT/LON GRID
 IMAX,JMAX,IJMAX,DLON,DLAT,IJORDR,WLON,RNLAT=
 360 180 64800 1.000000000 -1.000000000 T 0.5000000000 89.50000763
  LEVEL= 1 MAX= .3600E+02 AT I= 4824 MIN= .0000E+00 AT I=13072
  IN FIXRDC for MON= 6  FNGRIB=/nwprod/fix/global_albedo4.1x1.grb
  FILE /nwprod/fix/global_albedo4.1x1.grb opened. Unit= 51
  First grib record.
  KPDS( 1-10)= 7 0 255 128 215 1 0 0 12 0
  KPDS(11-20)= 0 0 4 0 3 51 0 1 131 0
  KPDS(21-  )= 20 1
  Input grib file dates= 0 6 0 0
 IMAX,JMAX,IJMAX= 360 180 64800
  MAXMIN of input as is
  LEVEL= 1 MAX= .9000E+02 AT I=64800 MIN= .0000E+00 AT I=60448
  KGDS( 1-12)= 0 360 180 89500 500 128 -89500 -500 1000 1000 0 0
  KGDS(13-22)= -1 -1 -1 -1 -1 -1 0 255 -1 -1
 LAT/LON GRID
 IMAX,JMAX,IJMAX,DLON,DLAT,IJORDR,WLON,RNLAT=
 360 180 64800 1.000000000 -1.000000000 T 0.5000000000 89.50000763
  LEVEL= 1 MAX= .9000E+02 AT I=12840 MIN= .0000E+00 AT I=12833
  IN FIXRDC for MON= 6  FNGRIB=/nwprod/fix/global_albedo4.1x1.grb
  FILE /nwprod/fix/global_albedo4.1x1.grb opened. Unit= 51
  First grib record.
  KPDS( 1-10)= 7 0 255 128 213 1 0 0 12 0
  KPDS(11-20)= 0 0 4 0 3 51 0 1 131 0
  KPDS(21-  )= 20 1
  Input grib file dates= 0 6 0 0
 IMAX,JMAX,IJMAX= 360 180 64800
  MAXMIN of input as is
  LEVEL= 1 MAX= .5100E+02 AT I=40700 MIN= .0000E+00 AT I=64800
  KGDS( 1-12)= 0 360 180 89500 500 128 -89500 -500 1000 1000 0 0
  KGDS(13-22)= -1 -1 -1 -1 -1 -1 0 255 -1 -1
 LAT/LON GRID
 IMAX,JMAX,IJMAX,DLON,DLAT,IJORDR,WLON,RNLAT=
 360 180 64800 1.000000000 -1.000000000 T 0.5000000000 89.50000763
  LEVEL= 1 MAX= .5100E+02 AT I= 4823 MIN= .0000E+00 AT I=13072
  IN FIXRDC for MON= 6  FNGRIB=/nwprod/fix/global_albedo4.1x1.grb
  FILE /nwprod/fix/global_albedo4.1x1.grb opened. Unit= 51
  First grib record.
  KPDS( 1-10)= 7 0 255 128 216 1 0 0 12 0
  KPDS(11-20)= 0 0 4 0 3 51 0 1 131 0
  KPDS(21-  )= 20 1
  Input grib file dates= 0 6 0 0
 IMAX,JMAX,IJMAX= 360 180 64800
  MAXMIN of input as is
  LEVEL= 1 MAX= .6500E+02 AT I=64800 MIN= .0000E+00 AT I=60448
  KGDS( 1-12)= 0 360 180 89500 500 128 -89500 -500 1000 1000 0 0
  KGDS(13-22)= -1 -1 -1 -1 -1 -1 0 255 -1 -1
 LAT/LON GRID
 IMAX,JMAX,IJMAX,DLON,DLAT,IJORDR,WLON,RNLAT=
 360 180 64800 1.000000000 -1.000000000 T 0.5000000000 89.50000763
  LEVEL= 1 MAX= .6500E+02 AT I=13072 MIN= .0000E+00 AT I=12833
  IN FIXRDC for MON= 7  FNGRIB=/nwprod/fix/cfs_oi2sst1x1monclim19822001.grb
  FILE /nwprod/fix/cfs_oi2sst1x1monclim19822001.grb opened. Unit= 51
  First grib record.
  KPDS( 1-10)= 7 44 255 128 11 1 0 82 1 1
  KPDS(11-20)= 0 0 3 0 1 51 20 1 3 0
  KPDS(21-  )= 20 2
  Input grib file dates= 82 7 1 0
 IMAX,JMAX,IJMAX= 360 180 64800
  MAXMIN of input as is
  LEVEL= 1 MAX= .3060E+03 AT I=23457 MIN= .2714E+03 AT I=64800
  KGDS( 1-12)= 0 360 180 89500 500 128 -89500 -500 1000 1000 0 0
  KGDS(13-22)= -1 -1 -1 -1 -1 -1 0 255 -1 -1
 LAT/LON GRID
 IMAX,JMAX,IJMAX,DLON,DLAT,IJORDR,WLON,RNLAT=
 360 180 64800 1.000000000 -1.000000000 T 0.5000000000 89.50000763
 I1,I2,J1,J2= 265 266 17 18
 RSLMSK= 1.000000000 1.000000000 1.000000000 1.000000000
 I= 420  SLMASK(I)= 0.0000000000E+00  outlon= -95.00000000  outlat= 73.33065796
 I1,I2,J1,J2= 306 307 19 20
 RSLMSK= 1.000000000 1.000000000 1.000000000 1.000000000
 I= 507  SLMASK(I)= 0.0000000000E+00  outlon= -54.00000000  outlat= 71.42617798
  Unable to interpolate.  Filled with nearest point value at  21  points  imxnx= -73008
  LEVEL= 1 MAX= .3057E+03 AT I= 3879 MIN= .2713E+03 AT I=13072
  IN FIXRDC for MON= 7  FNGRIB=/nwprod/fix/global_soilmcpc.1x1.grb
  FILE /nwprod/fix/global_soilmcpc.1x1.grb opened. Unit= 51
  First grib record.
  KPDS( 1-10)= 7 80 255 128 144 112 130 79 1 1
  KPDS(11-20)= 0 0 3 1 0 51 15 1 2 0
  KPDS(21-  )= 20 3
  Input grib file dates= 79 7 1 0
 IMAX,JMAX,IJMAX= 360 181 65160
  MAXMIN of input as is
  LEVEL= 1 MAX= .4700E+00 AT I=65160 MIN= .1030E+00 AT I=25225
  KGDS( 1-12)= 0 360 181 90000 0 128 -90000 -1 1000 1000 0 0
  KGDS(13-22)= -1 -1 -1 -1 -1 -1 0 255 -1 -1
 LAT/LON GRID
 IMAX,JMAX,IJMAX,DLON,DLAT,IJORDR,WLON,RNLAT=
 360 181 65160 1.000000000 -1.000000000 T 0.0000000000E+00 90.00000763
 I1,I2,J1,J2= 103 104 13 14
 RSLMSK= 1.000000000 1.000000000 0.0000000000E+00 1.000000000
 I= 252  SLMASK(I)= 0.0000000000E+00  outlon= 102.0000000  outlat= 77.13935852
 I1,I2,J1,J2= 266 267 15 16
 RSLMSK= 1.000000000 1.000000000 0.0000000000E+00 1.000000000
 I= 348  SLMASK(I)= 0.0000000000E+00  outlon= -95.00000000  outlat= 75.23506165
  Unable to interpolate.  Filled with nearest point value at  33  points  imxnx= -73008
  LEVEL= 1 MAX= .4700E+00 AT I= 6535 MIN= .1030E+00 AT I= 4052
  IN FIXRDC for MON= 7  FNGRIB=/nwprod/fix/cfs_ice1x1monclim19822001.grb
  FILE /nwprod/fix/cfs_ice1x1monclim19822001.grb opened. Unit= 51
  First grib record.
  KPDS( 1-10)= 7 44 255 192 91 1 0 82 1 1
  KPDS(11-20)= 0 0 3 0 1 51 20 1 3 0
  KPDS(21-  )= 20 2
  Input grib file dates= 82 7 1 0
 IMAX,JMAX,IJMAX= 360 180 64800
  MAXMIN of input as is
  LEVEL= 1 MAX= .9900E+00 AT I=59011 MIN= .0000E+00 AT I=64800
  KGDS( 1-12)= 0 360 180 89500 500 128 -89500 -500 1000 1000 0 0
  KGDS(13-22)= -1 -1 -1 -1 -1 -1 0 255 -1 -1
 LAT/LON GRID
 IMAX,JMAX,IJMAX,DLON,DLAT,IJORDR,WLON,RNLAT=
 360 180 64800 1.000000000 -1.000000000 T 0.5000000000 89.50000763
  LEVEL= 1 MAX= .9900E+00 AT I=12701 MIN= .0000E+00 AT I=13072
  IN FIXRDC for MON= 7  FNGRIB=/nwprod/fix/global_snoclim.1.875.grb
  FILE /nwprod/fix/global_snoclim.1.875.grb opened. Unit= 51
  First grib record.
  KPDS( 1-10)= 7 80 255 128 65 1 0 0 1 1
  KPDS(11-20)= 0 0 3 0 1 51 1 1 2 0
  KPDS(21-  )= 20 1
  Input grib file dates= 0 7 1 0
 IMAX,JMAX,IJMAX= 192 95 18240
  MAXMIN of input as is
  LEVEL= 1 MAX= .5000E+05 AT I=18240 MIN= .0000E+00 AT I=17776
  KGDS( 1-12)= 0 192 95 88125 0 128 -88125 -1875 1875 1875 0 0
  KGDS(13-22)= -1 -1 -1 -1 -1 -1 0 255 -1 -1
 LAT/LON GRID